<neuralNet>

	<layer>

		<node id="input1">

			<link id="k1" weight="0.0" />

			<link id="k2" weight="0.0" />

			<link id="k3" weight="0.0" />

			<link id="k4" weight="0.0" />

			<link id="k5" weight="0.0" />

			<link id="k6" weight="0.0" />

			<link id="k7" weight="0.0" />

			<link id="k8" weight="0.0" />

			<link id="k9" weight="0.0" />
		</node>

		<node id="input2">

			<link id="k1" weight="0.0" />

			<link id="k2" weight="0.0" />

			<link id="k3" weight="0.0" />

			<link id="k4" weight="0.0" />
			
			<link id="k5" weight="0.0" />

			<link id="k6" weight="0.0" />

			<link id="k7" weight="0.0" />

			<link id="k8" weight="0.0" />

			<link id="k9" weight="0.0" />
						
		</node>

		<node id="input3">

			<link id="k1" weight="0.0" />

			<link id="k2" weight="0.0" />

			<link id="k3" weight="0.0" />

			<link id="k4" weight="0.0" />

			<link id="k5" weight="0.0" />

			<link id="k6" weight="0.0" />

			<link id="k7" weight="0.0" />

			<link id="k8" weight="0.0" />

			<link id="k9" weight="0.0" />
			
		</node>
		
		<node id="input4">

			<link id="k1" weight="0.0" />

			<link id="k2" weight="0.0" />

			<link id="k3" weight="0.0" />

			<link id="k4" weight="0.0" />
			
			<link id="k5" weight="0.0" />

			<link id="k6" weight="0.0" />

			<link id="k7" weight="0.0" />

			<link id="k8" weight="0.0" />

			<link id="k9" weight="0.0" />
		</node>

		<node id="input5">

			<link id="k1" weight="0.0" />

			<link id="k2" weight="0.0" />

			<link id="k3" weight="0.0" />

			<link id="k4" weight="0.0" />
			
			<link id="k5" weight="0.0" />

			<link id="k6" weight="0.0" />

			<link id="k7" weight="0.0" />

			<link id="k8" weight="0.0" />

			<link id="k9" weight="0.0" />
		</node>

		<node id="input6">

			<link id="k1" weight="0.0" />

			<link id="k2" weight="0.0" />

			<link id="k3" weight="0.0" />

			<link id="k4" weight="0.0" />
			
			<link id="k5" weight="0.0" />

			<link id="k6" weight="0.0" />

			<link id="k7" weight="0.0" />

			<link id="k8" weight="0.0" />

			<link id="k9" weight="0.0" />
		</node>

		<node id="input7">

			<link id="k1" weight="0.0" />

			<link id="k2" weight="0.0" />

			<link id="k3" weight="0.0" />

			<link id="k4" weight="0.0" />
			
			<link id="k5" weight="0.0" />

			<link id="k6" weight="0.0" />

			<link id="k7" weight="0.0" />

			<link id="k8" weight="0.0" />

			<link id="k9" weight="0.0" />
		</node>
		
		<node id="input8">

			<link id="k1" weight="0.0" />

			<link id="k2" weight="0.0" />

			<link id="k3" weight="0.0" />

			<link id="k4" weight="0.0" />
			
			<link id="k5" weight="0.0" />

			<link id="k6" weight="0.0" />

			<link id="k7" weight="0.0" />

			<link id="k8" weight="0.0" />

			<link id="k9" weight="0.0" />
		</node>

		<node id="input9">

			<link id="k1" weight="0.0" />

			<link id="k2" weight="0.0" />

			<link id="k3" weight="0.0" />

			<link id="k4" weight="0.0" />
			
			<link id="k5" weight="0.0" />

			<link id="k6" weight="0.0" />

			<link id="k7" weight="0.0" />

			<link id="k8" weight="0.0" />

			<link id="k9" weight="0.0" />
		</node>
								
	</layer>

	<KohonenLayer neighbourhood="2D" rows="3" columns="3" conscience="true" conscience_coefficient="0.2">
<!-- 	<KohonenLayer neighbourhood="2D" rows="2" columns="2">
 -->	    
		<node id="k1" activation="linear">
		    <link id="g1" weight="0.0" />

			<link id="g2" weight="0.0" />

			<link id="g3" weight="0.0" />
		</node>		    
		<node id="k2" activation="linear">
		    <link id="g1" weight="0.0" />

			<link id="g2" weight="0.0" />

			<link id="g3" weight="0.0" />
		</node>		    
		<node id="k3" activation="linear">
		    <link id="g1" weight="0.0" />

			<link id="g2" weight="0.0" />

			<link id="g3" weight="0.0" />
		</node>		    
		<node id="k4" activation="linear">
		    <link id="g1" weight="0.0" />

			<link id="g2" weight="0.0" />

			<link id="g3" weight="0.0" />
		</node>		 
		<node id="k5" activation="linear">
		    <link id="g1" weight="0.0" />

			<link id="g2" weight="0.0" />

			<link id="g3" weight="0.0" />
		</node>		 
 		<node id="k6" activation="linear">
		    <link id="g1" weight="0.0" />

			<link id="g2" weight="0.0" />

			<link id="g3" weight="0.0" />
		</node>		 
 		<node id="k7" activation="linear">
		    <link id="g1" weight="0.0" />

			<link id="g2" weight="0.0" />

			<link id="g3" weight="0.0" />
		</node>		 
 		<node id="k8" activation="linear">
		    <link id="g1" weight="0.0" />

			<link id="g2" weight="0.0" />

			<link id="g3" weight="0.0" />
		</node>		 
		<node id="k9" activation="linear">
		    <link id="g1" weight="0.0" />

			<link id="g2" weight="0.0" />

			<link id="g3" weight="0.0" />
		</node>
        <bias>
            <link id="g1" weight="-0.25" />
            <link id="g2" weight="-0.25" />
            <link id="g3" weight="-0.25" />
        </bias>		 
	</KohonenLayer>
	
	<GrossbergLayer>
	    <node id="g1" activation="linear"/>
	    <node id="g2" activation="linear"/>
	    <node id="g3" activation="linear"/>
	</GrossbergLayer>
</neuralNet>